@<TRIPOS>MOLECULE
ACT
   65    70     1     0     0
SMALL
resp


@<TRIPOS>ATOM
      1 C1          1.1260   -1.0100    0.7640 c3        1 ACT      0.213255
      2 C2          0.5250   -1.2780    2.1680 c3        1 ACT     -0.085150
      3 C3         -0.9940   -1.5230    2.0680 c3        1 ACT     -0.051936
      4 C4         -1.4500   -1.3560    0.6030 c3        1 ACT      0.161122
      5 C5         -0.9540    0.0410    0.1360 c3        1 ACT     -0.031368
      6 O1          0.4700    0.1530    0.2510 os        1 ACT     -0.377754
      7 C6          0.7930   -2.2090   -0.1670 c3        1 ACT     -0.085150
      8 C7         -0.7310   -2.4370   -0.2350 c3        1 ACT     -0.051936
      9 N1         -2.9260   -1.4700    0.5280 n4        1 ACT     -0.158685
     10 C8         -3.5160   -1.4680   -0.8280 c3        1 ACT     -0.032262
     11 C9         -4.9500   -0.9760   -0.8520 ca        1 ACT      0.246224
     12 C10        -5.8940   -1.6070   -1.6860 ca        1 ACT     -0.296964
     13 C11        -7.1990   -1.0910   -1.7150 ca        1 ACT     -0.125827
     14 C12        -7.5250   -0.0030   -0.8920 ca        1 ACT      0.200313
     15 C13        -6.5150    0.5680   -0.0810 ca        1 ACT      0.405610
     16 N2         -5.2460    0.0980   -0.0830 nb        1 ACT     -0.592682
     17 O2         -8.8300    0.4240   -0.8370 os        1 ACT     -0.365928
     18 C14        -9.0850    1.7230   -0.3030 c3        1 ACT      0.077036
     19 C15        -8.1250    2.1290    0.8220 c         1 ACT      0.565433
     20 N3         -6.8970    1.5940    0.8060 n         1 ACT     -0.438140
     21 O3         -8.4900    2.9240    1.6820 o         1 ACT     -0.550338
     22 C16         2.6320   -0.7000    0.8740 c3        1 ACT     -0.127058
     23 C17         3.3700   -0.4430   -0.4540 c3        1 ACT      0.036507
     24 C18         4.8890   -0.4710   -0.2950 ca        1 ACT      0.082248
     25 C19         5.6630    0.7200   -0.2850 ca        1 ACT      0.042178
     26 C20         7.0840    0.5830   -0.1990 ca        1 ACT      0.400921
     27 N4          7.7010   -0.6170   -0.1310 nb        1 ACT     -0.590682
     28 C21         6.9500   -1.7310   -0.1000 ca        1 ACT      0.254307
     29 C22         5.5480   -1.7150   -0.1660 ca        1 ACT     -0.106583
     30 N5          5.0740    1.9370   -0.3460 nb        1 ACT     -0.387488
     31 C23         5.8330    3.0590   -0.3280 ca        1 ACT      0.554524
     32 C24         7.2340    3.0140   -0.2500 ca        1 ACT     -0.351337
     33 C25         7.8610    1.7600   -0.1810 ca        1 ACT     -0.130932
     34 O4          5.2140    4.2900   -0.3930 os        1 ACT     -0.385134
     35 C26         3.7940    4.3270   -0.4750 c3        1 ACT      0.031411
     36 Cl1         4.6800   -3.2050   -0.0640 cl        1 ACT     -0.113127
     37 H1          0.7180   -0.4300    2.8250 hc        1 ACT      0.077686
     38 H2          1.0100   -2.1410    2.6290 hc        1 ACT      0.077686
     39 H3         -1.5150   -0.8230    2.7200 hc        1 ACT      0.032261
     40 H4         -1.2420   -2.5210    2.4330 hc        1 ACT      0.032261
     41 H5         -1.2030    0.2440   -0.9030 h1        1 ACT      0.102395
     42 H6         -1.4170    0.8310    0.7300 h1        1 ACT      0.102395
     43 H7          1.1510   -2.0300   -1.1790 hc        1 ACT      0.077686
     44 H8          1.2930   -3.1130    0.1830 hc        1 ACT      0.077686
     45 H9         -1.0440   -2.4020   -1.2790 hc        1 ACT      0.032261
     46 H10        -0.9830   -3.4350    0.1270 hc        1 ACT      0.032261
     47 H11        -3.2120   -2.3190    0.9930 hn        1 ACT      0.273949
     48 H12        -2.9500   -0.8190   -1.4860 hx        1 ACT      0.110404
     49 H13        -3.4570   -2.4760   -1.2430 hx        1 ACT      0.110404
     50 H14        -5.6220   -2.4520   -2.3020 ha        1 ACT      0.194439
     51 H15        -7.9530   -1.5240   -2.3460 ha        1 ACT      0.203168
     52 H16       -10.1030    1.7260    0.0860 h1        1 ACT      0.104317
     53 H17        -9.0290    2.4590   -1.1060 h1        1 ACT      0.104317
     54 H18        -6.2200    1.8900    1.4960 hn        1 ACT      0.343012
     55 H19         2.7730    0.1690    1.5180 hc        1 ACT      0.044311
     56 H20         3.0980   -1.5350    1.3940 hc        1 ACT      0.044311
     57 H21         3.1280   -1.2000   -1.1960 hc        1 ACT      0.017813
     58 H22         3.0290    0.4950   -0.8920 hc        1 ACT      0.017813
     59 H23         7.4830   -2.6650   -0.0110 h4        1 ACT      0.103933
     60 H24         7.8170    3.9240   -0.2400 ha        1 ACT      0.197282
     61 H25         8.9380    1.7030   -0.1180 ha        1 ACT      0.184075
     62 H26         3.4650    5.3660   -0.5060 h1        1 ACT      0.064433
     63 H27         3.3300    3.8600    0.3950 h1        1 ACT      0.064433
     64 H28         3.4340    3.8370   -1.3810 h1        1 ACT      0.064433
     65 H29        -3.3090   -0.6870    1.0390 hn        1 ACT      0.273949
@<TRIPOS>BOND
     1    1    2 1   
     2    1    6 1   
     3    1    7 1   
     4    1   22 1   
     5    2    3 1   
     6    2   37 1   
     7    2   38 1   
     8    3    4 1   
     9    3   39 1   
    10    3   40 1   
    11    4    5 1   
    12    4    8 1   
    13    4    9 1   
    14    5    6 1   
    15    5   41 1   
    16    5   42 1   
    17    7    8 1   
    18    7   43 1   
    19    7   44 1   
    20    8   45 1   
    21    8   46 1   
    22    9   10 1   
    23    9   47 1   
    24    9   65 1   
    25   10   11 1   
    26   10   48 1   
    27   10   49 1   
    28   11   12 ar  
    29   11   16 ar  
    30   12   13 ar  
    31   12   50 1   
    32   13   14 ar  
    33   13   51 1   
    34   14   15 ar  
    35   14   17 1   
    36   15   16 ar  
    37   15   20 1   
    38   17   18 1   
    39   18   19 1   
    40   18   52 1   
    41   18   53 1   
    42   19   20 1   
    43   19   21 2   
    44   20   54 1   
    45   22   23 1   
    46   22   55 1   
    47   22   56 1   
    48   23   24 1   
    49   23   57 1   
    50   23   58 1   
    51   24   25 ar  
    52   24   29 ar  
    53   25   26 ar  
    54   25   30 ar  
    55   26   27 ar  
    56   26   33 ar  
    57   27   28 ar  
    58   28   29 ar  
    59   28   59 1   
    60   29   36 1   
    61   30   31 ar  
    62   31   32 ar  
    63   31   34 1   
    64   32   33 ar  
    65   32   60 1   
    66   33   61 1   
    67   34   35 1   
    68   35   62 1   
    69   35   63 1   
    70   35   64 1   
@<TRIPOS>SUBSTRUCTURE
     1 ACT         1 TEMP              0 ****  ****    0 ROOT
